


 69 72  0  0  1  0  0  0  0  0999 V2000
    5.7287   -4.6408    0.0000 C   0  0  0  0  0  0  0  0  0  0  0  0
    5.7287   -5.9667    0.0000 O   0  0  0  0  0  0  0  0  0  0  0  0
    4.5898   -3.9778    0.0000 C   0  0  1  0  0  0  0  0  0  0  0  0
    4.5898   -6.6127    0.0000 O   0  0  0  0  0  0  0  0  0  0  0  0
    3.4508   -4.6408    0.0000 N   0  0  0  0  0  0  0  0  0  0  0  0
    3.4508   -5.9667    0.0000 C   0  0  0  0  0  0  0  0  0  0  0  0
    6.8847   -3.9778    0.0000 O   0  0  0  0  0  0  0  0  0  0  0  0
    8.0066   -4.6408    0.0000 C   0  0  1  0  0  0  0  0  0  0  0  0
    8.0066   -5.9667    0.0000 C   0  0  0  0  0  0  0  0  0  0  0  0
    9.1626   -3.9778    0.0000 C   0  0  2  0  0  0  0  0  0  0  0  0
   10.3015   -4.6408    0.0000 C   0  0  0  0  0  0  0  0  0  0  0  0
    9.1626   -6.6127    0.0000 C   0  0  0  0  0  0  0  0  0  0  0  0
    4.5898   -2.6519    0.0000 C   0  0  0  0  0  0  0  0  0  0  0  0
    3.4508   -1.9889    0.0000 C   0  0  0  0  0  0  0  0  0  0  0  0
    2.2949   -3.9778    0.0000 C   0  0  0  0  0  0  0  0  0  0  0  0
    2.2949   -2.6519    0.0000 C   0  0  0  0  0  0  0  0  0  0  0  0
    9.1626   -2.6519    0.0000 C   0  0  0  0  0  0  0  0  0  0  0  0
   10.3015   -1.9889    0.0000 C   0  0  1  0  0  0  0  0  0  0  0  0
   11.4575   -2.6519    0.0000 C   0  0  0  0  0  0  0  0  0  0  0  0
   10.3015   -0.6630    0.0000 C   0  0  0  0  0  0  0  0  0  0  0  0
   11.4575    0.0000    0.0000 C   0  0  0  0  0  0  0  0  0  0  0  0
   12.5964   -1.9889    0.0000 C   0  0  2  0  0  0  0  0  0  0  0  0
   12.5964   -0.6630    0.0000 C   0  0  2  0  0  0  0  0  0  0  0  0
    3.4508   -8.5846    0.0000 O   0  0  0  0  0  0  0  0  0  0  0  0
    2.2949   -6.6127    0.0000 C   0  0  0  0  0  0  0  0  0  0  0  0
    2.2949   -7.9386    0.0000 C   0  0  1  0  0  0  0  0  0  0  0  0
    9.1626   -7.9386    0.0000 C   0  0  2  0  0  0  0  0  0  0  0  0
    8.0066   -8.5846    0.0000 C   0  0  0  0  0  0  0  0  0  0  0  0
    3.4338   -9.9105    0.0000 C   0  0  1  0  0  0  0  0  0  0  0  0
    2.2949  -10.5905    0.0000 C   0  0  0  0  0  0  0  0  0  0  0  0
    1.1559   -8.5846    0.0000 C   0  0  1  0  0  0  0  0  0  0  0  0
    1.1559   -9.9105    0.0000 C   0  0  0  0  0  0  0  0  0  0  0  0
    4.5898  -10.5905    0.0000 C   0  0  0  0  0  0  0  0  0  0  0  0
   10.3015   -8.5846    0.0000 C   0  0  0  0  0  0  0  0  0  0  0  0
   10.3015   -9.9105    0.0000 C   0  0  0  0  0  0  0  0  0  0  0  0
    9.1626  -10.5905    0.0000 C   0  0  0  0  0  0  0  0  0  0  0  0
    4.5898  -11.9165    0.0000 C   0  0  1  0  0  0  0  0  0  0  0  0
    6.8847  -11.9165    0.0000 C   0  0  0  0  0  0  0  0  0  0  0  0
    5.7457  -12.5794    0.0000 C   0  0  0  0  0  0  0  0  0  0  0  0
   11.4575  -10.5905    0.0000 C   0  0  2  0  0  0  0  0  0  0  0  0
   11.4575  -11.9165    0.0000 C   0  0  1  0  0  0  0  0  0  0  0  0
   10.3015  -12.5624    0.0000 O   0  0  0  0  0  0  0  0  0  0  0  0
    5.7457  -13.8884    0.0000 C   0  0  0  0  0  0  0  0  0  0  0  0
    6.8847  -14.5513    0.0000 C   0  0  0  0  0  0  0  0  0  0  0  0
   10.3015  -13.8884    0.0000 C   0  0  0  0  0  0  0  0  0  0  0  0
   12.5964  -12.5624    0.0000 C   0  0  0  0  0  0  0  0  0  0  0  0
   12.5964  -13.8884    0.0000 C   0  0  1  0  0  0  0  0  0  0  0  0
   11.4575  -14.5513    0.0000 C   0  0  0  0  0  0  0  0  0  0  0  0
    9.1626  -15.8773    0.0000 C   0  0  0  0  0  0  0  0  0  0  0  0
    8.0066  -16.5402    0.0000 C   0  0  0  0  0  0  0  0  0  0  0  0
    6.8847  -15.8773    0.0000 C   0  0  0  0  0  0  0  0  0  0  0  0
   10.8285  -15.8773    0.0000 C   0  0  1  0  0  0  0  0  0  0  0  0
   13.7524  -11.9165    0.0000 O   0  0  0  0  0  0  0  0  0  0  0  0
   12.5964   -9.9105    0.0000 O   0  0  0  0  0  0  0  0  0  0  0  0
   13.7524  -14.5513    0.0000 C   0  0  0  0  0  0  0  0  0  0  0  0
   11.5425  -16.9992    0.0000 C   0  0  0  0  0  0  0  0  0  0  0  0
    3.4508  -12.5794    0.0000 O   0  0  0  0  0  0  0  0  0  0  0  0
    3.4508  -13.9054    0.0000 C   0  0  0  0  0  0  0  0  0  0  0  0
   10.3015   -5.9667    0.0000 O   0  0  0  0  0  0  0  0  0  0  0  0
    1.1559   -7.2757    0.0000 O   0  0  0  0  0  0  0  0  0  0  0  0
    1.1559   -5.9497    0.0000 O   0  0  0  0  0  0  0  0  0  0  0  0
   13.7524   -2.6519    0.0000 O   0  0  0  0  0  0  0  0  0  0  0  0
   13.7524   -0.0170    0.0000 O   0  0  0  0  0  0  0  0  0  0  0  0
    0.0000   -7.9386    0.0000 C   0  0  0  0  0  0  0  0  0  0  0  0
   13.7524   -3.9778    0.0000 C   0  0  0  0  0  0  0  0  0  0  0  0
    9.0266   -1.6659    0.0000 H   0  0  0  0  0  0  0  0  0  0  0  0
    8.0066   -3.3148    0.0000 H   0  0  0  0  0  0  0  0  0  0  0  0
    3.4338  -11.2365    0.0000 H   0  0  0  0  0  0  0  0  0  0  0  0
    4.5898   -5.2868    0.0000 H   0  0  0  0  0  0  0  0  0  0  0  0
  1  3  1  0  0  0  0
  1  7  1  0  0  0  0
  1  2  2  0  0  0  0
  3 13  1  0  0  0  0
  3  5  1  0  0  0  0
  3 69  1  6  0  0  0
  4  6  2  0  0  0  0
  5  6  1  0  0  0  0
  5 15  1  0  0  0  0
  6 25  1  0  0  0  0
  7  8  1  0  0  0  0
  8 10  1  0  0  0  0
  8  9  1  0  0  0  0
  8 67  1  1  0  0  0
  9 12  1  0  0  0  0
 10 17  1  0  0  0  0
 10 11  1  1  0  0  0
 12 27  1  0  0  0  0
 12 59  2  0  0  0  0
 13 14  1  0  0  0  0
 14 16  1  0  0  0  0
 15 16  1  0  0  0  0
 17 18  1  0  0  0  0
 18 20  1  0  0  0  0
 18 19  1  0  0  0  0
 18 66  1  1  0  0  0
 19 22  1  0  0  0  0
 20 21  1  0  0  0  0
 21 23  1  0  0  0  0
 22 23  1  0  0  0  0
 22 62  1  6  0  0  0
 23 63  1  1  0  0  0
 24 26  1  0  0  0  0
 24 29  1  0  0  0  0
 25 26  1  0  0  0  0
 25 61  2  0  0  0  0
 26 31  1  0  0  0  0
 26 60  1  1  0  0  0
 27 34  1  0  0  0  0
 27 28  1  1  0  0  0
 29 30  1  0  0  0  0
 29 33  1  0  0  0  0
 29 68  1  1  0  0  0
 30 32  1  0  0  0  0
 31 32  1  0  0  0  0
 31 64  1  1  0  0  0
 33 37  1  0  0  0  0
 34 35  2  0  0  0  0
 35 40  1  0  0  0  0
 35 36  1  0  0  0  0
 37 39  1  0  0  0  0
 37 57  1  1  0  0  0
 38 39  1  0  0  0  0
 39 43  2  0  0  0  0
 40 41  1  0  0  0  0
 40 54  1  1  0  0  0
 41 46  1  0  0  0  0
 41 42  1  6  0  0  0
 42 45  1  0  0  0  0
 43 44  1  0  0  0  0
 44 51  2  0  0  0  0
 46 47  1  0  0  0  0
 46 53  2  0  0  0  0
 47 48  1  0  0  0  0
 47 55  1  6  0  0  0
 48 52  1  0  0  0  0
 49 50  2  0  0  0  0
 49 52  1  0  0  0  0
 50 51  1  0  0  0  0
 52 56  1  6  0  0  0
 57 58  1  0  0  0  0
 62 65  1  0  0  0  0
M  END
>  <DSSTox_RID>
42971

>  <DSSTox_CID>
3582

>  <DSSTox_Generic_SID>
23582

>  <DSSTox_FileID>
4_ARYEXP_Aux_v2a

>  <STRUCTURE_Formula>
C51H79NO13

>  <STRUCTURE_MolecularWeight>
914.1719

>  <STRUCTURE_ChemicalType>
defined organic

>  <STRUCTURE_TestedForm_DefinedOrganic>
parent

>  <STRUCTURE_Shown>
tested chemical

>  <TestSubstance_ChemicalName>
Sirolimus

>  <Source_ChemicalName>
Rapamycin

>  <TestSubstance_CASRN>
53123-88-9

>  <TestSubstance_Description>
single chemical compound

>  <ChemicalNote>
stereochem; tautomers

>  <STRUCTURE_ChemicalName_IUPAC>
(3S,6R,7E,9R,10R,12R,14S,15E,17E,19E,21S,23S,26R,27R,34aS)-9,27-dihydroxy-3-{(1R)-2-[(1S,3R,4R)-4-hydroxy-3-(methyloxy)cyclohexyl]-1-methylethyl}-6,8,12,14,20,26-hexamethyl-10,21-bis(methyloxy)-9,10,12,13,14,21,22,23,24,25,26,27,32,33,34,34a-hexadecahydro-3H-23,27-epoxypyrido[2,1-c][1,4]oxazacyclohentriacontine-1,5,11,28,29(6H,31H)-pentone

>  <STRUCTURE_SMILES>
C3([C@@H]1CCCCN1C(=O)C([C@@]2(O[C@@H](CC[C@H]2C)C[C@@H](/C(C)=C/C=C/C=C/[C@H](C[C@H](C([C@@H]([C@@H](/C(=C/[C@H](C(C[C@H](O3)[C@@H](C[C@@H]4CC[C@H]([C@@H](C4)OC)O)C)=O)C)C)O)OC)=O)C)C)OC)O)=O)=O

>  <STRUCTURE_Parent_SMILES>
C3([C@@H]1CCCCN1C(=O)C([C@@]2(O[C@@H](CC[C@H]2C)C[C@@H](/C(C)=C/C=C/C=C/[C@H](C[C@H](C([C@@H]([C@@H](/C(=C/[C@H](C(C[C@H](O3)[C@@H](C[C@@H]4CC[C@H]([C@@H](C4)OC)O)C)=O)C)C)O)OC)=O)C)C)OC)O)=O)=O

>  <STRUCTURE_InChI>
InChI=1S/C51H79NO13/c1-30-16-12-11-13-17-31(2)42(61-8)28-38-21-19-36(7)51(60,65-38)48(57)49(58)52-23-15-14-18-39(52)50(59)64-43(33(4)26-37-20-22-40(53)44(27-37)62-9)29-41(54)32(3)25-35(6)46(56)47(63-10)45(55)34(5)24-30/h11-13,16-17,25,30,32-34,36-40,42-44,46-47,53,56,60H,14-15,18-24,26-29H2,1-10H3/b13-11+,16-12+,31-17+,35-25+/t30-,32-,33-,34-,36-,37+,38+,39+,40-,42+,43+,44-,46-,47+,51-/m1/s1

>  <STRUCTURE_InChIKey>
QFJCIRLUMZQUOT-HPLJOQBZSA-N

>  <Substance_modify_yyyymmdd>
20080429

>  <StudyType>
microarray

>  <Chemical_StudyType>
Treatment

>  <Experiment_Accession>
E-MANP-2

>  <Experiment_URL>
http://www.ebi.ac.uk/arrayexpress/experiments/E-MANP-2

>  <Experiment_IdNumber>
3256053

>  <Experiment_Title>
Transcription profiling of yeast treated with rapamycin"

>  <Experiment_Description>
A diploid yeast strain was grown at 30C in YPD medium. At an OD of 0.6 (600nm) rapamycin was added to a final concentration of 0.20 ug/ml and the incubation continued for 90 min. A control culture was treated with an equal amount of DMSO vehicle. Cells were harvested at an OD of 0.9 rapamycin and 1.1 control., (Generated description) Experiment with 4 hybridizations, using 2 samples of species [Saccharomyces cerevisiae], using 4 arrays of array design [EMBLyeast12Kver1.1], producing 0 raw data files and 9 transformed and/or normalized data files.

>  <Experiment_PublicationDate>




>  <Species>
Saccharomyces cerevisiae

>  <Number_Samples>
2

>  <Experiment_ArrayAccession>
A-MANP-2,A-MANP-2

>  <Experiment_ArrayType>
EMBLyeast12Kver1.1

>  <Experiment_ArrayTitle>
EMBLyeast12Kver1.1,EMBLyeast12Kver1.1

>  <Experiment_DesignFile_PNG>
download/mageml/E-MANP-2.biosamples.png

>  <Experiment_DesignFile_SVG>
download/mageml/E-MANP-2.biosamples.svg

>  <Number_CelFiles_Affymetrix>




>  <Link_ProcessedData>
download/mageml/E-MANP-2.processed.zip

>  <Number_ProcessedDataFiles>
9

>  <Number_Hybridizations>
4

>  <Link_RawData>




>  <Number_RawDataFiles>




>  <Link_SampleDataRelationshipFile>
download/mageml/E-MANP-2.sdrf.txt

>  <Link_TwoColumnData>
download/mageml/E-MANP-2.2columns.txt

>  <Experiment_SampleAttributes>
Organism:Saccharomyces cerevisiae, StrainOrLine:FY1679

>  <Experiment_Factors>
compound" FV_MEASUREMENT="0.002, scanner type" FV_MEASUREMENT="scanner type

>  <MIAME_Total>
1

>  <MIAME_ArrayDesign_Score>
0

>  <MIAME_Factors_Score>
0

>  <MIAME_RawData_Score>
0

>  <MIAME_Protocol_Score>
0

>  <MIAME_ProcessedData_Score>
1

>  <Experiment_ArrayCount>
4,4

>  <Experiment_ArrayId>
3228858;3228858

>  <Experiment_BioassayAccessionCode>
MANP

>  <Experiment_BioassayCount>
9

>  <Experiment_BioassayDataFormat>
tab delimited

>  <Experiment_BioassayId>
1341872857

>  <Number_BioassayDerived>
1

>  <Experiment_BioassayTitle>
DED:1

>  <Number_BadCubes>
9

>  <Experiment_Submitter>
contact=Christian Schwager email=schwager@embl-heidelberg.de role=investigator, contact=W Ansorge role=investigator, contact=A Richter role=investigator, contact=Thomas Preiss role=submitter, contact=M Hentze role=investigator

>  <Experiment_DesignType>
unknown experiment type

>  <Experiment_DescriptionId>
3256054, 1341873179

$$$$
